452

C       0.6287023673143490       0.0000000000000000       0.4445597072760119
C      -0.6287023673143490       0.0000000000000000      -0.4445597072760119
H       0.6287023673143490       0.8981462390204987       1.0796450033846001
H       0.6287023673143490      -0.8981462390204987       1.0796450033846001
H      -0.6287023673143490       0.8981462390204987      -1.0796450033846001
H      -0.6287023673143490      -0.8981462390204987      -1.0796450033846001
C       1.8861071019430471       0.0000000000000000      -0.4445597072760119
C      -1.8861071019430471       0.0000000000000000       0.4445597072760119
H       1.8861071019430471       0.8981462390204987      -1.0796450033846001
H       1.8861071019430471      -0.8981462390204987      -1.0796450033846001
H      -1.8861071019430471       0.8981462390204987       1.0796450033846001
H      -1.8861071019430471      -0.8981462390204987       1.0796450033846001
C       3.1435118365717454       0.0000000000000000       0.4445597072760119
C      -3.1435118365717454       0.0000000000000000      -0.4445597072760119
H       3.1435118365717454       0.8981462390204987       1.0796450033846001
H       3.1435118365717454      -0.8981462390204987       1.0796450033846001
H      -3.1435118365717454       0.8981462390204987      -1.0796450033846001
H      -3.1435118365717454      -0.8981462390204987      -1.0796450033846001
C       4.4009165712004439       0.0000000000000000      -0.4445597072760119
C      -4.4009165712004439       0.0000000000000000       0.4445597072760119
H       4.4009165712004439       0.8981462390204987      -1.0796450033846001
H       4.4009165712004439      -0.8981462390204987      -1.0796450033846001
H      -4.4009165712004439       0.8981462390204987       1.0796450033846001
H      -4.4009165712004439      -0.8981462390204987       1.0796450033846001
C       5.6583213058291424       0.0000000000000000       0.4445597072760119
C      -5.6583213058291424       0.0000000000000000      -0.4445597072760119
H       5.6583213058291424       0.8981462390204987       1.0796450033846001
H       5.6583213058291424      -0.8981462390204987       1.0796450033846001
H      -5.6583213058291424       0.8981462390204987      -1.0796450033846001
H      -5.6583213058291424      -0.8981462390204987      -1.0796450033846001
C       6.9157260404578409       0.0000000000000000      -0.4445597072760119
C      -6.9157260404578409       0.0000000000000000       0.4445597072760119
H       6.9157260404578409       0.8981462390204987      -1.0796450033846001
H       6.9157260404578409      -0.8981462390204987      -1.0796450033846001
H      -6.9157260404578409       0.8981462390204987       1.0796450033846001
H      -6.9157260404578409      -0.8981462390204987       1.0796450033846001
C       8.1731307750865394       0.0000000000000000       0.4445597072760119
C      -8.1731307750865394       0.0000000000000000      -0.4445597072760119
H       8.1731307750865394       0.8981462390204987       1.0796450033846001
H       8.1731307750865394      -0.8981462390204987       1.0796450033846001
H      -8.1731307750865394       0.8981462390204987      -1.0796450033846001
H      -8.1731307750865394      -0.8981462390204987      -1.0796450033846001
C       9.4305355097152379       0.0000000000000000      -0.4445597072760119
C      -9.4305355097152379       0.0000000000000000       0.4445597072760119
H       9.4305355097152379       0.8981462390204987      -1.0796450033846001
H       9.4305355097152379      -0.8981462390204987      -1.0796450033846001
H      -9.4305355097152379       0.8981462390204987       1.0796450033846001
H      -9.4305355097152379      -0.8981462390204987       1.0796450033846001
C      10.6879402443439364       0.0000000000000000       0.4445597072760119
C     -10.6879402443439364       0.0000000000000000      -0.4445597072760119
H      10.6879402443439364       0.8981462390204987       1.0796450033846001
H      10.6879402443439364      -0.8981462390204987       1.0796450033846001
H     -10.6879402443439364       0.8981462390204987      -1.0796450033846001
H     -10.6879402443439364      -0.8981462390204987      -1.0796450033846001
C      11.9453449789726349       0.0000000000000000      -0.4445597072760119
C     -11.9453449789726349       0.0000000000000000       0.4445597072760119
H      11.9453449789726349       0.8981462390204987      -1.0796450033846001
H      11.9453449789726349      -0.8981462390204987      -1.0796450033846001
H     -11.9453449789726349       0.8981462390204987       1.0796450033846001
H     -11.9453449789726349      -0.8981462390204987       1.0796450033846001
C      13.2027497136013334       0.0000000000000000       0.4445597072760119
C     -13.2027497136013334       0.0000000000000000      -0.4445597072760119
H      13.2027497136013334       0.8981462390204987       1.0796450033846001
H      13.2027497136013334      -0.8981462390204987       1.0796450033846001
H     -13.2027497136013334       0.8981462390204987      -1.0796450033846001
H     -13.2027497136013334      -0.8981462390204987      -1.0796450033846001
C      14.4601544482300319       0.0000000000000000      -0.4445597072760119
C     -14.4601544482300319       0.0000000000000000       0.4445597072760119
H      14.4601544482300319       0.8981462390204987      -1.0796450033846001
H      14.4601544482300319      -0.8981462390204987      -1.0796450033846001
H     -14.4601544482300319       0.8981462390204987       1.0796450033846001
H     -14.4601544482300319      -0.8981462390204987       1.0796450033846001
C      15.7175591828587304       0.0000000000000000       0.4445597072760119
C     -15.7175591828587304       0.0000000000000000      -0.4445597072760119
H      15.7175591828587304       0.8981462390204987       1.0796450033846001
H      15.7175591828587304      -0.8981462390204987       1.0796450033846001
H     -15.7175591828587304       0.8981462390204987      -1.0796450033846001
H     -15.7175591828587304      -0.8981462390204987      -1.0796450033846001
C      16.9749639174874289       0.0000000000000000      -0.4445597072760119
C     -16.9749639174874289       0.0000000000000000       0.4445597072760119
H      16.9749639174874289       0.8981462390204987      -1.0796450033846001
H      16.9749639174874289      -0.8981462390204987      -1.0796450033846001
H     -16.9749639174874289       0.8981462390204987       1.0796450033846001
H     -16.9749639174874289      -0.8981462390204987       1.0796450033846001
C      18.2323686521161257       0.0000000000000000       0.4445597072760119
C     -18.2323686521161257       0.0000000000000000      -0.4445597072760119
H      18.2323686521161257       0.8981462390204987       1.0796450033846001
H      18.2323686521161257      -0.8981462390204987       1.0796450033846001
H     -18.2323686521161257       0.8981462390204987      -1.0796450033846001
H     -18.2323686521161257      -0.8981462390204987      -1.0796450033846001
C      19.4897733867448224       0.0000000000000000      -0.4445597072760119
C     -19.4897733867448224       0.0000000000000000       0.4445597072760119
H      19.4897733867448224       0.8981462390204987      -1.0796450033846001
H      19.4897733867448224      -0.8981462390204987      -1.0796450033846001
H     -19.4897733867448224       0.8981462390204987       1.0796450033846001
H     -19.4897733867448224      -0.8981462390204987       1.0796450033846001
C      20.7471781213735191       0.0000000000000000       0.4445597072760119
C     -20.7471781213735191       0.0000000000000000      -0.4445597072760119
H      20.7471781213735191       0.8981462390204987       1.0796450033846001
H      20.7471781213735191      -0.8981462390204987       1.0796450033846001
H     -20.7471781213735191       0.8981462390204987      -1.0796450033846001
H     -20.7471781213735191      -0.8981462390204987      -1.0796450033846001
C      22.0045828560022159       0.0000000000000000      -0.4445597072760119
C     -22.0045828560022159       0.0000000000000000       0.4445597072760119
H      22.0045828560022159       0.8981462390204987      -1.0796450033846001
H      22.0045828560022159      -0.8981462390204987      -1.0796450033846001
H     -22.0045828560022159       0.8981462390204987       1.0796450033846001
H     -22.0045828560022159      -0.8981462390204987       1.0796450033846001
C      23.2619875906309126       0.0000000000000000       0.4445597072760119
C     -23.2619875906309126       0.0000000000000000      -0.4445597072760119
H      23.2619875906309126       0.8981462390204987       1.0796450033846001
H      23.2619875906309126      -0.8981462390204987       1.0796450033846001
H     -23.2619875906309126       0.8981462390204987      -1.0796450033846001
H     -23.2619875906309126      -0.8981462390204987      -1.0796450033846001
C      24.5193923252596093       0.0000000000000000      -0.4445597072760119
C     -24.5193923252596093       0.0000000000000000       0.4445597072760119
H      24.5193923252596093       0.8981462390204987      -1.0796450033846001
H      24.5193923252596093      -0.8981462390204987      -1.0796450033846001
H     -24.5193923252596093       0.8981462390204987       1.0796450033846001
H     -24.5193923252596093      -0.8981462390204987       1.0796450033846001
C      25.7767970598883061       0.0000000000000000       0.4445597072760119
C     -25.7767970598883061       0.0000000000000000      -0.4445597072760119
H      25.7767970598883061       0.8981462390204987       1.0796450033846001
H      25.7767970598883061      -0.8981462390204987       1.0796450033846001
H     -25.7767970598883061       0.8981462390204987      -1.0796450033846001
H     -25.7767970598883061      -0.8981462390204987      -1.0796450033846001
C      27.0342017945170028       0.0000000000000000      -0.4445597072760119
C     -27.0342017945170028       0.0000000000000000       0.4445597072760119
H      27.0342017945170028       0.8981462390204987      -1.0796450033846001
H      27.0342017945170028      -0.8981462390204987      -1.0796450033846001
H     -27.0342017945170028       0.8981462390204987       1.0796450033846001
H     -27.0342017945170028      -0.8981462390204987       1.0796450033846001
C      28.2916065291456995       0.0000000000000000       0.4445597072760119
C     -28.2916065291456995       0.0000000000000000      -0.4445597072760119
H      28.2916065291456995       0.8981462390204987       1.0796450033846001
H      28.2916065291456995      -0.8981462390204987       1.0796450033846001
H     -28.2916065291456995       0.8981462390204987      -1.0796450033846001
H     -28.2916065291456995      -0.8981462390204987      -1.0796450033846001
C      29.5490112637743962       0.0000000000000000      -0.4445597072760119
C     -29.5490112637743962       0.0000000000000000       0.4445597072760119
H      29.5490112637743962       0.8981462390204987      -1.0796450033846001
H      29.5490112637743962      -0.8981462390204987      -1.0796450033846001
H     -29.5490112637743962       0.8981462390204987       1.0796450033846001
H     -29.5490112637743962      -0.8981462390204987       1.0796450033846001
C      30.8064159984030930       0.0000000000000000       0.4445597072760119
C     -30.8064159984030930       0.0000000000000000      -0.4445597072760119
H      30.8064159984030930       0.8981462390204987       1.0796450033846001
H      30.8064159984030930      -0.8981462390204987       1.0796450033846001
H     -30.8064159984030930       0.8981462390204987      -1.0796450033846001
H     -30.8064159984030930      -0.8981462390204987      -1.0796450033846001
C      32.0638207330317897       0.0000000000000000      -0.4445597072760119
C     -32.0638207330317897       0.0000000000000000       0.4445597072760119
H      32.0638207330317897       0.8981462390204987      -1.0796450033846001
H      32.0638207330317897      -0.8981462390204987      -1.0796450033846001
H     -32.0638207330317897       0.8981462390204987       1.0796450033846001
H     -32.0638207330317897      -0.8981462390204987       1.0796450033846001
C      33.3212254676604900       0.0000000000000000       0.4445597072760119
C     -33.3212254676604900       0.0000000000000000      -0.4445597072760119
H      33.3212254676604900       0.8981462390204987       1.0796450033846001
H      33.3212254676604900      -0.8981462390204987       1.0796450033846001
H     -33.3212254676604900       0.8981462390204987      -1.0796450033846001
H     -33.3212254676604900      -0.8981462390204987      -1.0796450033846001
C      34.5786302022891903       0.0000000000000000      -0.4445597072760119
C     -34.5786302022891903       0.0000000000000000       0.4445597072760119
H      34.5786302022891903       0.8981462390204987      -1.0796450033846001
H      34.5786302022891903      -0.8981462390204987      -1.0796450033846001
H     -34.5786302022891903       0.8981462390204987       1.0796450033846001
H     -34.5786302022891903      -0.8981462390204987       1.0796450033846001
C      35.8360349369178905       0.0000000000000000       0.4445597072760119
C     -35.8360349369178905       0.0000000000000000      -0.4445597072760119
H      35.8360349369178905       0.8981462390204987       1.0796450033846001
H      35.8360349369178905      -0.8981462390204987       1.0796450033846001
H     -35.8360349369178905       0.8981462390204987      -1.0796450033846001
H     -35.8360349369178905      -0.8981462390204987      -1.0796450033846001
C      37.0934396715465908       0.0000000000000000      -0.4445597072760119
C     -37.0934396715465908       0.0000000000000000       0.4445597072760119
H      37.0934396715465908       0.8981462390204987      -1.0796450033846001
H      37.0934396715465908      -0.8981462390204987      -1.0796450033846001
H     -37.0934396715465908       0.8981462390204987       1.0796450033846001
H     -37.0934396715465908      -0.8981462390204987       1.0796450033846001
C      38.3508444061752911       0.0000000000000000       0.4445597072760119
C     -38.3508444061752911       0.0000000000000000      -0.4445597072760119
H      38.3508444061752911       0.8981462390204987       1.0796450033846001
H      38.3508444061752911      -0.8981462390204987       1.0796450033846001
H     -38.3508444061752911       0.8981462390204987      -1.0796450033846001
H     -38.3508444061752911      -0.8981462390204987      -1.0796450033846001
C      39.6082491408039914       0.0000000000000000      -0.4445597072760119
C     -39.6082491408039914       0.0000000000000000       0.4445597072760119
H      39.6082491408039914       0.8981462390204987      -1.0796450033846001
H      39.6082491408039914      -0.8981462390204987      -1.0796450033846001
H     -39.6082491408039914       0.8981462390204987       1.0796450033846001
H     -39.6082491408039914      -0.8981462390204987       1.0796450033846001
C      40.8656538754326917       0.0000000000000000       0.4445597072760119
C     -40.8656538754326917       0.0000000000000000      -0.4445597072760119
H      40.8656538754326917       0.8981462390204987       1.0796450033846001
H      40.8656538754326917      -0.8981462390204987       1.0796450033846001
H     -40.8656538754326917       0.8981462390204987      -1.0796450033846001
H     -40.8656538754326917      -0.8981462390204987      -1.0796450033846001
C      42.1230586100613920       0.0000000000000000      -0.4445597072760119
C     -42.1230586100613920       0.0000000000000000       0.4445597072760119
H      42.1230586100613920       0.8981462390204987      -1.0796450033846001
H      42.1230586100613920      -0.8981462390204987      -1.0796450033846001
H     -42.1230586100613920       0.8981462390204987       1.0796450033846001
H     -42.1230586100613920      -0.8981462390204987       1.0796450033846001
C      43.3804633446900922       0.0000000000000000       0.4445597072760119
C     -43.3804633446900922       0.0000000000000000      -0.4445597072760119
H      43.3804633446900922       0.8981462390204987       1.0796450033846001
H      43.3804633446900922      -0.8981462390204987       1.0796450033846001
H     -43.3804633446900922       0.8981462390204987      -1.0796450033846001
H     -43.3804633446900922      -0.8981462390204987      -1.0796450033846001
C      44.6378680793187925       0.0000000000000000      -0.4445597072760119
C     -44.6378680793187925       0.0000000000000000       0.4445597072760119
H      44.6378680793187925       0.8981462390204987      -1.0796450033846001
H      44.6378680793187925      -0.8981462390204987      -1.0796450033846001
H     -44.6378680793187925       0.8981462390204987       1.0796450033846001
H     -44.6378680793187925      -0.8981462390204987       1.0796450033846001
C      45.8952728139474928       0.0000000000000000       0.4445597072760119
C     -45.8952728139474928       0.0000000000000000      -0.4445597072760119
H      45.8952728139474928       0.8981462390204987       1.0796450033846001
H      45.8952728139474928      -0.8981462390204987       1.0796450033846001
H     -45.8952728139474928       0.8981462390204987      -1.0796450033846001
H     -45.8952728139474928      -0.8981462390204987      -1.0796450033846001
C      47.1526775485761931       0.0000000000000000      -0.4445597072760119
C     -47.1526775485761931       0.0000000000000000       0.4445597072760119
H      47.1526775485761931       0.8981462390204987      -1.0796450033846001
H      47.1526775485761931      -0.8981462390204987      -1.0796450033846001
H     -47.1526775485761931       0.8981462390204987       1.0796450033846001
H     -47.1526775485761931      -0.8981462390204987       1.0796450033846001
C      48.4100822832048934       0.0000000000000000       0.4445597072760119
C     -48.4100822832048934       0.0000000000000000      -0.4445597072760119
H      48.4100822832048934       0.8981462390204987       1.0796450033846001
H      48.4100822832048934      -0.8981462390204987       1.0796450033846001
H     -48.4100822832048934       0.8981462390204987      -1.0796450033846001
H     -48.4100822832048934      -0.8981462390204987      -1.0796450033846001
C      49.6674870178335937       0.0000000000000000      -0.4445597072760119
C     -49.6674870178335937       0.0000000000000000       0.4445597072760119
H      49.6674870178335937       0.8981462390204987      -1.0796450033846001
H      49.6674870178335937      -0.8981462390204987      -1.0796450033846001
H     -49.6674870178335937       0.8981462390204987       1.0796450033846001
H     -49.6674870178335937      -0.8981462390204987       1.0796450033846001
C      50.9248917524622939       0.0000000000000000       0.4445597072760119
C     -50.9248917524622939       0.0000000000000000      -0.4445597072760119
H      50.9248917524622939       0.8981462390204987       1.0796450033846001
H      50.9248917524622939      -0.8981462390204987       1.0796450033846001
H     -50.9248917524622939       0.8981462390204987      -1.0796450033846001
H     -50.9248917524622939      -0.8981462390204987      -1.0796450033846001
C      52.1822964870909942       0.0000000000000000      -0.4445597072760119
C     -52.1822964870909942       0.0000000000000000       0.4445597072760119
H      52.1822964870909942       0.8981462390204987      -1.0796450033846001
H      52.1822964870909942      -0.8981462390204987      -1.0796450033846001
H     -52.1822964870909942       0.8981462390204987       1.0796450033846001
H     -52.1822964870909942      -0.8981462390204987       1.0796450033846001
C      53.4397012217196945       0.0000000000000000       0.4445597072760119
C     -53.4397012217196945       0.0000000000000000      -0.4445597072760119
H      53.4397012217196945       0.8981462390204987       1.0796450033846001
H      53.4397012217196945      -0.8981462390204987       1.0796450033846001
H     -53.4397012217196945       0.8981462390204987      -1.0796450033846001
H     -53.4397012217196945      -0.8981462390204987      -1.0796450033846001
C      54.6971059563483948       0.0000000000000000      -0.4445597072760119
C     -54.6971059563483948       0.0000000000000000       0.4445597072760119
H      54.6971059563483948       0.8981462390204987      -1.0796450033846001
H      54.6971059563483948      -0.8981462390204987      -1.0796450033846001
H     -54.6971059563483948       0.8981462390204987       1.0796450033846001
H     -54.6971059563483948      -0.8981462390204987       1.0796450033846001
C      55.9545106909770951       0.0000000000000000       0.4445597072760119
C     -55.9545106909770951       0.0000000000000000      -0.4445597072760119
H      55.9545106909770951       0.8981462390204987       1.0796450033846001
H      55.9545106909770951      -0.8981462390204987       1.0796450033846001
H     -55.9545106909770951       0.8981462390204987      -1.0796450033846001
H     -55.9545106909770951      -0.8981462390204987      -1.0796450033846001
C      57.2119154256057953       0.0000000000000000      -0.4445597072760119
C     -57.2119154256057953       0.0000000000000000       0.4445597072760119
H      57.2119154256057953       0.8981462390204987      -1.0796450033846001
H      57.2119154256057953      -0.8981462390204987      -1.0796450033846001
H     -57.2119154256057953       0.8981462390204987       1.0796450033846001
H     -57.2119154256057953      -0.8981462390204987       1.0796450033846001
C      58.4693201602344956       0.0000000000000000       0.4445597072760119
C     -58.4693201602344956       0.0000000000000000      -0.4445597072760119
H      58.4693201602344956       0.8981462390204987       1.0796450033846001
H      58.4693201602344956      -0.8981462390204987       1.0796450033846001
H     -58.4693201602344956       0.8981462390204987      -1.0796450033846001
H     -58.4693201602344956      -0.8981462390204987      -1.0796450033846001
C      59.7267248948631959       0.0000000000000000      -0.4445597072760119
C     -59.7267248948631959       0.0000000000000000       0.4445597072760119
H      59.7267248948631959       0.8981462390204987      -1.0796450033846001
H      59.7267248948631959      -0.8981462390204987      -1.0796450033846001
H     -59.7267248948631959       0.8981462390204987       1.0796450033846001
H     -59.7267248948631959      -0.8981462390204987       1.0796450033846001
C      60.9841296294918962       0.0000000000000000       0.4445597072760119
C     -60.9841296294918962       0.0000000000000000      -0.4445597072760119
H      60.9841296294918962       0.8981462390204987       1.0796450033846001
H      60.9841296294918962      -0.8981462390204987       1.0796450033846001
H     -60.9841296294918962       0.8981462390204987      -1.0796450033846001
H     -60.9841296294918962      -0.8981462390204987      -1.0796450033846001
C      62.2415343641205965       0.0000000000000000      -0.4445597072760119
C     -62.2415343641205965       0.0000000000000000       0.4445597072760119
H      62.2415343641205965       0.8981462390204987      -1.0796450033846001
H      62.2415343641205965      -0.8981462390204987      -1.0796450033846001
H     -62.2415343641205965       0.8981462390204987       1.0796450033846001
H     -62.2415343641205965      -0.8981462390204987       1.0796450033846001
C      63.4989390987492968       0.0000000000000000       0.4445597072760119
C     -63.4989390987492968       0.0000000000000000      -0.4445597072760119
H      63.4989390987492968       0.8981462390204987       1.0796450033846001
H      63.4989390987492968      -0.8981462390204987       1.0796450033846001
H     -63.4989390987492968       0.8981462390204987      -1.0796450033846001
H     -63.4989390987492968      -0.8981462390204987      -1.0796450033846001
C      64.7563438333779970       0.0000000000000000      -0.4445597072760119
C     -64.7563438333779970       0.0000000000000000       0.4445597072760119
H      64.7563438333779970       0.8981462390204987      -1.0796450033846001
H      64.7563438333779970      -0.8981462390204987      -1.0796450033846001
H     -64.7563438333779970       0.8981462390204987       1.0796450033846001
H     -64.7563438333779970      -0.8981462390204987       1.0796450033846001
C      66.0137485680066902       0.0000000000000000       0.4445597072760119
C     -66.0137485680066902       0.0000000000000000      -0.4445597072760119
H      66.0137485680066902       0.8981462390204987       1.0796450033846001
H      66.0137485680066902      -0.8981462390204987       1.0796450033846001
H     -66.0137485680066902       0.8981462390204987      -1.0796450033846001
H     -66.0137485680066902      -0.8981462390204987      -1.0796450033846001
C      67.2711533026353834       0.0000000000000000      -0.4445597072760119
C     -67.2711533026353834       0.0000000000000000       0.4445597072760119
H      67.2711533026353834       0.8981462390204987      -1.0796450033846001
H      67.2711533026353834      -0.8981462390204987      -1.0796450033846001
H     -67.2711533026353834       0.8981462390204987       1.0796450033846001
H     -67.2711533026353834      -0.8981462390204987       1.0796450033846001
C      68.5285580372640766       0.0000000000000000       0.4445597072760119
C     -68.5285580372640766       0.0000000000000000      -0.4445597072760119
H      68.5285580372640766       0.8981462390204987       1.0796450033846001
H      68.5285580372640766      -0.8981462390204987       1.0796450033846001
H     -68.5285580372640766       0.8981462390204987      -1.0796450033846001
H     -68.5285580372640766      -0.8981462390204987      -1.0796450033846001
C      69.7859627718927698       0.0000000000000000      -0.4445597072760119
C     -69.7859627718927698       0.0000000000000000       0.4445597072760119
H      69.7859627718927698       0.8981462390204987      -1.0796450033846001
H      69.7859627718927698      -0.8981462390204987      -1.0796450033846001
H     -69.7859627718927698       0.8981462390204987       1.0796450033846001
H     -69.7859627718927698      -0.8981462390204987       1.0796450033846001
C      71.0433675065214629       0.0000000000000000       0.4445597072760119
C     -71.0433675065214629       0.0000000000000000      -0.4445597072760119
H      71.0433675065214629       0.8981462390204987       1.0796450033846001
H      71.0433675065214629      -0.8981462390204987       1.0796450033846001
H     -71.0433675065214629       0.8981462390204987      -1.0796450033846001
H     -71.0433675065214629      -0.8981462390204987      -1.0796450033846001
C      72.3007722411501561       0.0000000000000000      -0.4445597072760119
C     -72.3007722411501561       0.0000000000000000       0.4445597072760119
H      72.3007722411501561       0.8981462390204987      -1.0796450033846001
H      72.3007722411501561      -0.8981462390204987      -1.0796450033846001
H     -72.3007722411501561       0.8981462390204987       1.0796450033846001
H     -72.3007722411501561      -0.8981462390204987       1.0796450033846001
C      73.5581769757788493       0.0000000000000000       0.4445597072760119
C     -73.5581769757788493       0.0000000000000000      -0.4445597072760119
H      73.5581769757788493       0.8981462390204987       1.0796450033846001
H      73.5581769757788493      -0.8981462390204987       1.0796450033846001
H     -73.5581769757788493       0.8981462390204987      -1.0796450033846001
H     -73.5581769757788493      -0.8981462390204987      -1.0796450033846001
C      74.8155817104075425       0.0000000000000000      -0.4445597072760119
C     -74.8155817104075425       0.0000000000000000       0.4445597072760119
H      74.8155817104075425       0.8981462390204987      -1.0796450033846001
H      74.8155817104075425      -0.8981462390204987      -1.0796450033846001
H     -74.8155817104075425       0.8981462390204987       1.0796450033846001
H     -74.8155817104075425      -0.8981462390204987       1.0796450033846001
C      76.0729864450362356       0.0000000000000000       0.4445597072760119
C     -76.0729864450362356       0.0000000000000000      -0.4445597072760119
H      76.0729864450362356       0.8981462390204987       1.0796450033846001
H      76.0729864450362356      -0.8981462390204987       1.0796450033846001
H     -76.0729864450362356       0.8981462390204987      -1.0796450033846001
H     -76.0729864450362356      -0.8981462390204987      -1.0796450033846001
C      77.3303911796649288       0.0000000000000000      -0.4445597072760119
C     -77.3303911796649288       0.0000000000000000       0.4445597072760119
H      77.3303911796649288       0.8981462390204987      -1.0796450033846001
H      77.3303911796649288      -0.8981462390204987      -1.0796450033846001
H     -77.3303911796649288       0.8981462390204987       1.0796450033846001
H     -77.3303911796649288      -0.8981462390204987       1.0796450033846001
C      78.5877959142936220       0.0000000000000000       0.4445597072760119
C     -78.5877959142936220       0.0000000000000000      -0.4445597072760119
H      78.5877959142936220       0.8981462390204987       1.0796450033846001
H      78.5877959142936220      -0.8981462390204987       1.0796450033846001
H     -78.5877959142936220       0.8981462390204987      -1.0796450033846001
H     -78.5877959142936220      -0.8981462390204987      -1.0796450033846001
C      79.8452006489223152       0.0000000000000000      -0.4445597072760119
C     -79.8452006489223152       0.0000000000000000       0.4445597072760119
H      79.8452006489223152       0.8981462390204987      -1.0796450033846001
H      79.8452006489223152      -0.8981462390204987      -1.0796450033846001
H     -79.8452006489223152       0.8981462390204987       1.0796450033846001
H     -79.8452006489223152      -0.8981462390204987       1.0796450033846001
C      81.1026053835510083       0.0000000000000000       0.4445597072760119
C     -81.1026053835510083       0.0000000000000000      -0.4445597072760119
H      81.1026053835510083       0.8981462390204987       1.0796450033846001
H      81.1026053835510083      -0.8981462390204987       1.0796450033846001
H     -81.1026053835510083       0.8981462390204987      -1.0796450033846001
H     -81.1026053835510083      -0.8981462390204987      -1.0796450033846001
C      82.3600101181797015       0.0000000000000000      -0.4445597072760119
C     -82.3600101181797015       0.0000000000000000       0.4445597072760119
H      82.3600101181797015       0.8981462390204987      -1.0796450033846001
H      82.3600101181797015      -0.8981462390204987      -1.0796450033846001
H     -82.3600101181797015       0.8981462390204987       1.0796450033846001
H     -82.3600101181797015      -0.8981462390204987       1.0796450033846001
C      83.6174148528083947       0.0000000000000000       0.4445597072760119
C     -83.6174148528083947       0.0000000000000000      -0.4445597072760119
H      83.6174148528083947       0.8981462390204987       1.0796450033846001
H      83.6174148528083947      -0.8981462390204987       1.0796450033846001
H     -83.6174148528083947       0.8981462390204987      -1.0796450033846001
H     -83.6174148528083947      -0.8981462390204987      -1.0796450033846001
C      84.8748195874370879       0.0000000000000000      -0.4445597072760119
C     -84.8748195874370879       0.0000000000000000       0.4445597072760119
H      84.8748195874370879       0.8981462390204987      -1.0796450033846001
H      84.8748195874370879      -0.8981462390204987      -1.0796450033846001
H     -84.8748195874370879       0.8981462390204987       1.0796450033846001
H     -84.8748195874370879      -0.8981462390204987       1.0796450033846001
C      86.1322243220657811       0.0000000000000000       0.4445597072760119
C     -86.1322243220657811       0.0000000000000000      -0.4445597072760119
H      86.1322243220657811       0.8981462390204987       1.0796450033846001
H      86.1322243220657811      -0.8981462390204987       1.0796450033846001
H     -86.1322243220657811       0.8981462390204987      -1.0796450033846001
H     -86.1322243220657811      -0.8981462390204987      -1.0796450033846001
C      87.3896290566944742       0.0000000000000000      -0.4445597072760119
C     -87.3896290566944742       0.0000000000000000       0.4445597072760119
H      87.3896290566944742       0.8981462390204987      -1.0796450033846001
H      87.3896290566944742      -0.8981462390204987      -1.0796450033846001
H     -87.3896290566944742       0.8981462390204987       1.0796450033846001
H     -87.3896290566944742      -0.8981462390204987       1.0796450033846001
C      88.6470337913231674       0.0000000000000000       0.4445597072760119
C     -88.6470337913231674       0.0000000000000000      -0.4445597072760119
H      88.6470337913231674       0.8981462390204987       1.0796450033846001
H      88.6470337913231674      -0.8981462390204987       1.0796450033846001
H     -88.6470337913231674       0.8981462390204987      -1.0796450033846001
H     -88.6470337913231674      -0.8981462390204987      -1.0796450033846001
C      89.9044385259518606       0.0000000000000000      -0.4445597072760119
C     -89.9044385259518606       0.0000000000000000       0.4445597072760119
H      89.9044385259518606       0.8981462390204987      -1.0796450033846001
H      89.9044385259518606      -0.8981462390204987      -1.0796450033846001
H     -89.9044385259518606       0.8981462390204987       1.0796450033846001
H     -89.9044385259518606      -0.8981462390204987       1.0796450033846001
C      91.1618432605805538       0.0000000000000000       0.4445597072760119
C     -91.1618432605805538       0.0000000000000000      -0.4445597072760119
H      91.1618432605805538       0.8981462390204987       1.0796450033846001
H      91.1618432605805538      -0.8981462390204987       1.0796450033846001
H     -91.1618432605805538       0.8981462390204987      -1.0796450033846001
H     -91.1618432605805538      -0.8981462390204987      -1.0796450033846001
C      92.4192479952092469       0.0000000000000000      -0.4445597072760119
C     -92.4192479952092469       0.0000000000000000       0.4445597072760119
H      92.4192479952092469       0.8981462390204987      -1.0796450033846001
H      92.4192479952092469      -0.8981462390204987      -1.0796450033846001
H     -92.4192479952092469       0.8981462390204987       1.0796450033846001
H     -92.4192479952092469      -0.8981462390204987       1.0796450033846001
C      93.6766527298379401       0.0000000000000000       0.4445597072760119
C     -93.6766527298379401       0.0000000000000000      -0.4445597072760119
H      93.6766527298379401       0.8981462390204987       1.0796450033846001
H      93.6766527298379401      -0.8981462390204987       1.0796450033846001
H     -93.6766527298379401       0.8981462390204987      -1.0796450033846001
H     -93.6766527298379401      -0.8981462390204987      -1.0796450033846001
H      94.5747989688584454       0.0000000000000000      -0.1905255888325765
H     -94.5747989688584454       0.0000000000000000       0.1905255888325765
